*SPEF "IEEE 1481.1999"
*DESIGN "atm_fsm"
*DATE "02:38:17 Wednesday April 16, 2025"
*VENDOR "unknown"
*PROGRAM "qrouter"
*VERSION "unknown"
*DESIGN_FLOW "qflow"
*DIVIDER /
*DELIMITER :
*BUS_DELIMITER <>
*T_UNIT 1 PS
*C_UNIT 1 FF
*R_UNIT 1 OHM
*L_UNIT 1 HENRY

*NAME_MAP
*1 _177_
*2 NAND2X1_2
*3 OAI21X1_39
*4 OAI21X1_38
*5 NOR2X1_3
*6 OAI21X1_40
*7 OAI21X1_30
*8 OAI21X1_31
*9 OAI21X1_28
*10 OAI21X1_27
*11 OAI21X1_26
*12 OAI21X1_29
*13 OAI21X1_32
*14 OAI21X1_34
*15 OAI21X1_35
*16 OAI21X1_33
*17 OAI21X1_36
*18 OAI21X1_37
*19 _37_
*20 NAND2X1_8
*21 INVX2_5
*22 OAI21X1_44
*23 OAI22X1_1
*24 OAI21X1_10
*25 OAI21X1_9
*26 OAI21X1_8
*27 OAI21X1_43
*28 OAI21X1_13
*29 OAI21X1_15
*30 OAI21X1_12
*31 OAI21X1_5
*32 OAI21X1_4
*33 OAI21X1_6
*34 OR2X2_2
*35 OAI21X1_3
*36 OAI21X1_25
*37 clk_bF_buf5
*38 CLKBUF1_1
*39 DFFSR_18
*40 DFFSR_12
*41 DFFSR_4
*42 DFFSR_7
*43 DFFSR_3
*44 DFFSR_38
*45 DFFSR_37
*46 clk_bF_buf4
*47 CLKBUF1_2
*48 DFFSR_29
*49 DFFSR_39
*50 DFFSR_36
*51 DFFSR_31
*52 DFFSR_28
*53 DFFSR_2
*54 DFFSR_1
*55 clk_bF_buf3
*56 CLKBUF1_3
*57 DFFSR_14
*58 DFFSR_11
*59 DFFSR_13
*60 DFFSR_8
*61 DFFSR_15
*62 DFFSR_10
*63 DFFSR_9
*64 _5__bF_buf5
*65 BUFX4_15
*66 DFFSR_39
*67 DFFSR_36
*68 DFFSR_29
*69 DFFSR_1
*70 DFFSR_2
*71 DFFSR_28
*72 DFFSR_31
*73 _5__bF_buf4
*74 BUFX4_16
*75 DFFSR_37
*76 DFFSR_12
*77 DFFSR_7
*78 DFFSR_3
*79 DFFSR_4
*80 DFFSR_18
*81 DFFSR_38
*82 _5__bF_buf3
*83 BUFX4_17
*84 DFFSR_13
*85 DFFSR_11
*86 DFFSR_14
*87 DFFSR_8
*88 DFFSR_10
*89 DFFSR_9
*90 DFFSR_15
*91 _171_
*92 INVX2_1
*93 NOR2X1_1
*94 AOI21X1_5
*95 NAND2X1_23
*96 NAND2X1_22
*97 OAI21X1_52
*98 NAND2X1_25
*99 NOR2X1_39
*100 freeze_timer[10]
*101 DFFSR_18
*102 NAND3X1_14
*103 NOR2X1_17
*104 INVX1_11
*105 NAND3X1_2
*106 AOI21X1_2
*107 NAND3X1_16
*108 OAI21X1_1
*109 clk
*110 CLKBUF1_6
*111 CLKBUF1_3
*112 CLKBUF1_1
*113 CLKBUF1_4
*114 CLKBUF1_2
*115 CLKBUF1_5
*116 clk_bF_buf2
*117 CLKBUF1_4
*118 DFFSR_30
*119 DFFSR_5
*120 DFFSR_20
*121 DFFSR_17
*122 DFFSR_16
*123 DFFSR_6
*124 clk_bF_buf1
*125 CLKBUF1_5
*126 DFFSR_25
*127 DFFSR_27
*128 DFFSR_35
*129 DFFSR_34
*130 DFFSR_33
*131 DFFSR_32
*132 clk_bF_buf0
*133 CLKBUF1_6
*134 DFFSR_19
*135 DFFSR_23
*136 DFFSR_22
*137 DFFSR_24
*138 DFFSR_21
*139 DFFSR_26
*140 _181__bF_buf3
*141 BUFX4_7
*142 NOR2X1_34
*143 NOR2X1_33
*144 OAI22X1_1
*145 NOR2X1_32
*146 INVX8_1
*147 OAI21X1_44
*148 _181__bF_buf2
*149 BUFX4_8
*150 NOR2X1_30
*151 NOR2X1_24
*152 NOR2X1_28
*153 NOR2X1_26
*154 NOR2X1_29
*155 NOR2X1_27
*156 _169__bF_buf3
*157 BUFX4_11
*158 NAND2X1_21
*159 NAND3X1_24
*160 OAI21X1_59
*161 OAI21X1_58
*162 AOI22X1_1
*163 OAI21X1_45
*164 _169__bF_buf2
*165 BUFX4_12
*166 NAND3X1_9
*167 NAND3X1_14
*168 NAND3X1_13
*169 NAND3X1_12
*170 NAND3X1_17
*171 NAND3X1_10
*172 _169__bF_buf1
*173 BUFX4_13
*174 NAND3X1_8
*175 NAND3X1_5
*176 NAND3X1_7
*177 NAND3X1_3
*178 NAND3X1_1
*179 NAND3X1_4
*180 _169__bF_buf0
*181 BUFX4_14
*182 NAND3X1_15
*183 NAND3X1_21
*184 NAND3X1_19
*185 NAND3X1_23
*186 NAND3X1_18
*187 NOR2X1_15
*188 _5_
*189 INVX8_3
*190 BUFX4_15
*191 BUFX4_16
*192 BUFX4_17
*193 BUFX4_19
*194 BUFX4_20
*195 BUFX4_18
*196 _5__bF_buf2
*197 BUFX4_18
*198 DFFSR_30
*199 DFFSR_5
*200 DFFSR_6
*201 DFFSR_19
*202 DFFSR_21
*203 DFFSR_26
*204 _5__bF_buf1
*205 BUFX4_19
*206 DFFSR_16
*207 DFFSR_17
*208 DFFSR_20
*209 DFFSR_24
*210 DFFSR_22
*211 DFFSR_23
*212 _5__bF_buf0
*213 BUFX4_20
*214 DFFSR_35
*215 DFFSR_25
*216 DFFSR_27
*217 DFFSR_34
*218 DFFSR_32
*219 DFFSR_33
*220 _182_[2]
*221 DFFSR_3
*222 INVX1_1
*223 NOR2X1_37
*224 BUFX2_7
*225 NAND2X1_25
*226 NAND2X1_27
*227 NOR2X1_38
*228 freeze_timer[13]
*229 DFFSR_21
*230 OAI21X1_2
*231 INVX1_12
*232 NAND3X1_20
*233 NAND3X1_22
*234 NOR2X1_4
*235 NAND3X1_18
*236 _79_
*237 NAND3X1_16
*238 NAND2X1_17
*239 OAI21X1_21
*240 NOR3X1_3
*241 AND2X2_4
*242 OAI21X1_19
*243 NOR2X1_19
*244 _179__bF_buf3
*245 BUFX4_1
*246 NAND3X1_13
*247 NAND3X1_17
*248 NAND3X1_21
*249 NAND3X1_19
*250 NAND3X1_23
*251 _179__bF_buf2
*252 BUFX4_2
*253 NAND3X1_10
*254 NAND3X1_12
*255 NAND3X1_1
*256 NAND3X1_3
*257 NAND3X1_4
*258 _173__bF_buf3
*259 BUFX4_3
*260 OAI21X1_32
*261 OAI21X1_34
*262 OAI21X1_35
*263 OAI21X1_33
*264 OAI21X1_36
*265 _173__bF_buf2
*266 BUFX4_4
*267 OAI21X1_30
*268 OAI21X1_31
*269 OAI21X1_26
*270 OAI21X1_28
*271 OAI21X1_27
*272 _173__bF_buf1
*273 BUFX4_5
*274 OAI21X1_29
*275 OAI21X1_37
*276 OAI21X1_39
*277 NOR2X1_3
*278 OAI21X1_40
*279 _181__bF_buf1
*280 BUFX4_9
*281 NOR2X1_23
*282 AOI21X1_5
*283 AOI22X1_3
*284 AOI21X1_6
*285 NOR2X1_31
*286 _181__bF_buf0
*287 BUFX4_10
*288 NOR2X1_25
*289 NOR2X1_21
*290 BUFX2_4
*291 NOR2X1_22
*292 NOR2X1_20
*293 _182_[1]
*294 DFFSR_2
*295 INVX2_9
*296 NOR2X1_1
*297 NOR2X1_40
*298 NAND3X1_25
*299 BUFX2_6
*300 freeze_timer[0]
*301 DFFSR_8
*302 NAND3X1_1
*303 OR2X2_1
*304 NAND2X1_9
*305 OAI21X1_3
*306 NAND3X1_6
*307 freeze_timer[11]
*308 DFFSR_19
*309 NAND3X1_15
*310 NAND3X1_16
*311 NOR2X1_4
*312 OAI21X1_1
*313 AOI21X1_2
*314 freeze_timer[14]
*315 DFFSR_22
*316 AOI21X1_3
*317 NOR2X1_18
*318 NAND3X1_20
*319 NAND3X1_19
*320 AND2X2_2
*321 _75_
*322 INVX2_5
*323 OAI21X1_16
*324 NAND2X1_17
*325 NAND2X1_19
*326 NAND2X1_18
*327 OAI21X1_19
*328 _82_
*329 INVX2_6
*330 NOR2X1_19
*331 NOR3X1_3
*332 OAI21X1_21
*333 OAI21X1_19
*334 AND2X2_4
*335 _179_
*336 INVX8_2
*337 BUFX2_2
*338 BUFX2_1
*339 BUFX4_2
*340 BUFX4_1
*341 _179__bF_buf1
*342 BUFX2_1
*343 NAND3X1_9
*344 NAND3X1_7
*345 NAND3X1_8
*346 NAND3X1_5
*347 _179__bF_buf0
*348 BUFX2_2
*349 NAND3X1_14
*350 OAI21X1_44
*351 NAND3X1_18
*352 NAND3X1_15
*353 _173_
*354 NAND2X1_1
*355 BUFX4_5
*356 BUFX4_4
*357 BUFX4_6
*358 BUFX4_3
*359 _173__bF_buf0
*360 BUFX4_6
*361 OAI21X1_42
*362 OAI21X1_38
*363 OAI21X1_41
*364 INVX2_8
*365 _181_
*366 DFFSR_5
*367 BUFX4_10
*368 BUFX4_7
*369 BUFX4_9
*370 BUFX4_8
*371 _169_
*372 INVX8_1
*373 BUFX4_11
*374 BUFX4_12
*375 BUFX4_14
*376 BUFX4_13
*377 correct_pin
*378 NAND3X1_24
*379 OAI21X1_41
*380 AOI22X1_2
*381 INVX1_2
*382 freeze_timer[12]
*383 DFFSR_20
*384 INVX2_6
*385 NAND3X1_17
*386 NAND3X1_2
*387 OAI21X1_1
*388 _15_
*389 INVX2_3
*390 XNOR2X1_3
*391 OAI21X1_14
*392 NAND3X1_2
*393 NOR3X1_2
*394 freeze_timer[1]
*395 DFFSR_9
*396 NAND3X1_3
*397 NAND2X1_9
*398 NAND3X1_6
*399 OR2X2_1
*400 freeze_timer[5]
*401 DFFSR_13
*402 INVX1_9
*403 NAND2X1_12
*404 NAND3X1_11
*405 NAND3X1_8
*406 _62_
*407 NAND3X1_11
*408 OAI21X1_14
*409 NOR3X1_2
*410 XNOR2X1_3
*411 NAND2X1_15
*412 _68_
*413 NOR3X1_2
*414 NAND3X1_16
*415 AOI21X1_2
*416 INVX1_10
*417 NOR2X1_17
*418 _89_
*419 NOR3X1_3
*420 NOR2X1_18
*421 AOI21X1_4
*422 AOI21X1_3
*423 OR2X2_2
*424 _117_
*425 INVX2_7
*426 OAI21X1_41
*427 OAI21X1_42
*428 OAI22X1_1
*429 NOR2X1_35
*430 _120_
*431 INVX2_8
*432 NAND3X1_24
*433 OAI22X1_2
*434 NAND2X1_20
*435 AOI22X1_2
*436 _127_
*437 INVX2_9
*438 OAI21X1_50
*439 NAND2X1_22
*440 NOR2X1_38
*441 AOI22X1_3
*442 exit
*443 INVX1_20
*444 NOR2X1_39
*445 OAI21X1_53
*446 OAI21X1_50
*447 _170_
*448 INVX1_1
*449 OAI21X1_59
*450 NAND2X1_1
*451 OAI21X1_53
*452 _182_[0]
*453 DFFSR_1
*454 NAND2X1_28
*455 BUFX2_5
*456 INVX2_1
*457 _175_
*458 INVX1_3
*459 NOR2X1_2
*460 OAI22X1_2
*461 OAI21X1_43
*462 _176_
*463 NOR2X1_2
*464 NOR2X1_36
*465 NAND2X1_2
*466 OAI21X1_45
*467 _9_
*468 INVX1_5
*469 OAI21X1_14
*470 NOR3X1_2
*471 AND2X2_1
*472 _13_
*473 INVX2_2
*474 OAI21X1_11
*475 NOR2X1_5
*476 XNOR2X1_2
*477 freeze_timer[15]
*478 DFFSR_23
*479 AOI21X1_3
*480 NAND3X1_21
*481 AND2X2_2
*482 _18_
*483 AND2X2_2
*484 NAND3X1_22
*485 NAND2X1_3
*486 AOI21X1_4
*487 freeze_timer[16]
*488 DFFSR_24
*489 AOI21X1_4
*490 NAND2X1_3
*491 NAND3X1_23
*492 freeze_timer[2]
*493 DFFSR_10
*494 NAND3X1_6
*495 NAND3X1_4
*496 XOR2X1_1
*497 _45_
*498 INVX2_4
*499 OAI21X1_7
*500 NOR3X1_1
*501 XNOR2X1_1
*502 _46_
*503 NAND3X1_6
*504 XNOR2X1_1
*505 NOR3X1_1
*506 OAI21X1_7
*507 _51_
*508 NOR3X1_1
*509 INVX1_8
*510 NAND3X1_11
*511 NAND2X1_12
*512 _55_
*513 NAND2X1_12
*514 NAND2X1_14
*515 XNOR2X1_2
*516 OAI21X1_11
*517 _132_
*518 INVX1_15
*519 OAI21X1_54
*520 OAI21X1_51
*521 OAI21X1_49
*522 _133_
*523 NOR2X1_38
*524 NAND2X1_23
*525 INVX1_16
*526 NAND2X1_28
*527 _134_
*528 NAND2X1_23
*529 NOR2X1_43
*530 INVX1_18
*531 OAI21X1_49
*532 _136_
*533 INVX1_17
*534 OAI21X1_53
*535 NAND2X1_24
*536 OAI21X1_50
*537 _172_
*538 NOR2X1_1
*539 NAND2X1_1
*540 NAND2X1_27
*541 _174_
*542 INVX1_2
*543 NAND2X1_20
*544 NAND2X1_2
*545 wrong_pin_counter[1]
*546 DFFSR_7
*547 NOR2X1_35
*548 INVX1_3
*549 wrong_pin_counter[0]
*550 DFFSR_6
*551 INVX2_7
*552 NOR2X1_2
*553 freeze_timer[9]
*554 DFFSR_17
*555 NAND3X1_13
*556 INVX1_5
*557 freeze_timer[7]
*558 DFFSR_15
*559 NAND3X1_10
*560 INVX1_6
*561 _12_
*562 INVX1_6
*563 OAI21X1_11
*564 NOR2X1_5
*565 freeze_timer[6]
*566 DFFSR_14
*567 INVX2_2
*568 NAND3X1_9
*569 _14_
*570 NOR2X1_5
*571 NOR2X1_6
*572 NAND3X1_11
*573 freeze_timer[8]
*574 DFFSR_16
*575 NAND3X1_12
*576 INVX2_3
*577 freeze_timer[27]
*578 DFFSR_35
*579 OAI21X1_36
*580 NOR2X1_7
*581 freeze_timer[26]
*582 DFFSR_34
*583 OAI21X1_35
*584 NOR2X1_7
*585 freeze_timer[25]
*586 DFFSR_33
*587 OAI21X1_34
*588 NOR2X1_8
*589 freeze_timer[24]
*590 DFFSR_32
*591 NOR2X1_8
*592 OAI21X1_33
*593 freeze_timer[31]
*594 DFFSR_39
*595 OAI21X1_40
*596 NOR2X1_9
*597 freeze_timer[30]
*598 DFFSR_38
*599 NOR2X1_9
*600 OAI21X1_39
*601 freeze_timer[29]
*602 DFFSR_37
*603 OAI21X1_38
*604 NOR2X1_10
*605 freeze_timer[28]
*606 DFFSR_36
*607 OAI21X1_37
*608 NOR2X1_10
*609 freeze_timer[23]
*610 DFFSR_31
*611 OAI21X1_32
*612 NOR2X1_12
*613 freeze_timer[22]
*614 DFFSR_30
*615 OAI21X1_31
*616 NOR2X1_12
*617 freeze_timer[21]
*618 DFFSR_29
*619 OAI21X1_30
*620 NOR2X1_13
*621 freeze_timer[20]
*622 DFFSR_28
*623 OAI21X1_29
*624 NOR2X1_13
*625 freeze_timer[19]
*626 DFFSR_27
*627 OAI21X1_28
*628 NOR2X1_14
*629 freeze_timer[18]
*630 DFFSR_26
*631 OAI21X1_27
*632 NOR2X1_14
*633 freeze_timer[17]
*634 DFFSR_25
*635 OAI21X1_26
*636 NOR2X1_15
*637 _40_
*638 NAND2X1_9
*639 XOR2X1_1
*640 NAND2X1_10
*641 freeze_timer[3]
*642 DFFSR_11
*643 INVX2_4
*644 NAND3X1_5
*645 freeze_timer[4]
*646 DFFSR_12
*647 INVX1_7
*648 NAND3X1_7
*649 _49_
*650 INVX1_7
*651 OAI21X1_7
*652 NOR3X1_1
*653 _52_
*654 INVX1_8
*655 NAND2X1_13
*656 NAND2X1_11
*657 _69_
*658 INVX1_10
*659 NAND2X1_16
*660 OAI21X1_16
*661 _86_
*662 INVX1_12
*663 NOR3X1_3
*664 OAI21X1_21
*665 _93_
*666 NOR2X1_19
*667 NAND3X1_20
*668 NAND3X1_22
*669 _121_
*670 NAND2X1_20
*671 OAI22X1_2
*672 OAI21X1_45
*673 _180_
*674 DFFSR_4
*675 BUFX2_3
*676 INVX1_14
*677 _129_
*678 NOR2X1_37
*679 NAND2X1_26
*680 AOI22X1_1
*681 _135_
*682 INVX1_16
*683 OAI21X1_52
*684 OAI21X1_47
*685 _137_
*686 NOR2X1_39
*687 OAI21X1_46
*688 NAND2X1_24
*689 _139_
*690 NAND2X1_25
*691 INVX1_21
*692 NOR2X1_40
*693 _140_
*694 NOR2X1_40
*695 OAI21X1_46
*696 OAI21X1_55
*697 amount_entered
*698 OAI21X1_55
*699 OAI21X1_46
*700 _144_
*701 NAND2X1_27
*702 OAI21X1_48
*703 OAI21X1_57
*704 cash_eject
*705 OAI21X1_57
*706 OAI21X1_48
*707 _150_
*708 OAI21X1_50
*709 AOI21X1_6
*710 INVX1_19
*711 withdraw
*712 OAI21X1_54
*713 OAI21X1_51
*714 _154_
*715 INVX1_20
*716 NAND3X1_25
*717 OAI21X1_55
*718 _156_
*719 NAND3X1_25
*720 OAI21X1_57
*721 OAI21X1_52
*722 _159_
*723 OAI21X1_53
*724 OAI21X1_54
*725 INVX1_22
*726 _178_
*727 NOR2X1_3
*728 INVX8_2
*729 _6_
*730 NAND3X1_1
*731 OAI21X1_3
*732 _7_
*733 OAI21X1_1
*734 INVX1_4
*735 _8_
*736 INVX1_4
*737 OAI21X1_2
*738 _10_
*739 NOR2X1_4
*740 AND2X2_1
*741 _11_
*742 AND2X2_1
*743 AOI21X1_1
*744 _16_
*745 NAND3X1_2
*746 NOR2X1_6
*747 _17_
*748 NOR2X1_6
*749 AOI21X1_1
*750 _19_
*751 NAND2X1_3
*752 AOI21X1_1
*753 _20_
*754 AOI21X1_1
*755 OAI21X1_2
*756 _21_
*757 OAI21X1_2
*758 NAND2X1_8
*759 _22_
*760 NOR2X1_7
*761 NAND2X1_4
*762 _23_
*763 NOR2X1_8
*764 NAND2X1_4
*765 _24_
*766 NAND2X1_4
*767 NOR2X1_11
*768 _25_
*769 NOR2X1_9
*770 NAND2X1_5
*771 _26_
*772 NOR2X1_10
*773 NAND2X1_5
*774 _27_
*775 NAND2X1_5
*776 NOR2X1_11
*777 _28_
*778 NOR2X1_11
*779 AND2X2_3
*780 _29_
*781 NOR2X1_12
*782 NAND2X1_6
*783 _30_
*784 NOR2X1_13
*785 NAND2X1_6
*786 _31_
*787 NAND2X1_6
*788 NOR2X1_16
*789 _32_
*790 NOR2X1_14
*791 NAND2X1_7
*792 _33_
*793 NOR2X1_15
*794 NAND2X1_7
*795 _34_
*796 NAND2X1_7
*797 NOR2X1_16
*798 _35_
*799 NOR2X1_16
*800 AND2X2_3
*801 _36_
*802 AND2X2_3
*803 NAND2X1_8
*804 _2_[0]
*805 OAI21X1_3
*806 DFFSR_8
*807 _38_
*808 NAND3X1_3
*809 OAI21X1_4
*810 _39_
*811 OR2X2_1
*812 NAND2X1_10
*813 _41_
*814 NAND2X1_10
*815 OAI21X1_4
*816 _2_[1]
*817 OAI21X1_4
*818 DFFSR_9
*819 _42_
*820 NAND3X1_4
*821 OAI21X1_5
*822 _43_
*823 XOR2X1_1
*824 OAI21X1_5
*825 _2_[2]
*826 OAI21X1_5
*827 DFFSR_10
*828 _44_
*829 NAND3X1_5
*830 OAI21X1_6
*831 _47_
*832 XNOR2X1_1
*833 OAI21X1_6
*834 _2_[3]
*835 OAI21X1_6
*836 DFFSR_11
*837 _48_
*838 NAND3X1_7
*839 OAI21X1_8
*840 _50_
*841 OAI21X1_7
*842 NAND2X1_11
*843 _53_
*844 NAND2X1_11
*845 OAI21X1_8
*846 _2_[4]
*847 OAI21X1_8
*848 DFFSR_12
*849 _54_
*850 NAND3X1_8
*851 OAI21X1_9
*852 _56_
*853 INVX1_9
*854 NAND2X1_13
*855 _57_
*856 NAND2X1_13
*857 NAND2X1_14
*858 _58_
*859 NAND2X1_14
*860 OAI21X1_9
*861 _2_[5]
*862 OAI21X1_9
*863 DFFSR_13
*864 _59_
*865 NAND3X1_9
*866 OAI21X1_10
*867 _60_
*868 XNOR2X1_2
*869 OAI21X1_10
*870 _2_[6]
*871 OAI21X1_10
*872 DFFSR_14
*873 _61_
*874 NAND3X1_10
*875 OAI21X1_12
*876 _63_
*877 OAI21X1_11
*878 NAND2X1_15
*879 _64_
*880 NAND2X1_15
*881 OAI21X1_12
*882 _2_[7]
*883 OAI21X1_12
*884 DFFSR_15
*885 _65_
*886 NAND3X1_12
*887 OAI21X1_13
*888 _66_
*889 XNOR2X1_3
*890 OAI21X1_13
*891 _2_[8]
*892 OAI21X1_13
*893 DFFSR_16
*894 _67_
*895 NAND3X1_13
*896 OAI21X1_15
*897 _70_
*898 OAI21X1_14
*899 NAND2X1_16
*900 _71_
*901 NAND2X1_16
*902 OAI21X1_15
*903 _2_[9]
*904 OAI21X1_15
*905 DFFSR_17
*906 _72_
*907 NAND3X1_14
*908 OAI21X1_17
*909 _73_
*910 NOR2X1_17
*911 OAI21X1_17
*912 _74_
*913 INVX1_11
*914 OAI21X1_16
*915 _76_
*916 OAI21X1_16
*917 OAI21X1_17
*918 _2_[10]
*919 OAI21X1_17
*920 DFFSR_18
*921 _77_
*922 NAND3X1_15
*923 OAI21X1_18
*924 _78_
*925 AOI21X1_2
*926 OAI21X1_18
*927 _80_
*928 NAND2X1_17
*929 OAI21X1_18
*930 _2_[11]
*931 OAI21X1_18
*932 DFFSR_19
*933 _81_
*934 NAND3X1_17
*935 OAI21X1_20
*936 _83_
*937 AND2X2_4
*938 OAI21X1_20
*939 _84_
*940 OAI21X1_19
*941 OAI21X1_20
*942 _2_[12]
*943 OAI21X1_20
*944 DFFSR_20
*945 _85_
*946 NAND3X1_18
*947 OAI21X1_22
*948 _87_
*949 OAI21X1_21
*950 INVX1_13
*951 _88_
*952 INVX1_13
*953 OAI21X1_22
*954 _90_
*955 OR2X2_2
*956 OAI21X1_22
*957 _2_[13]
*958 OAI21X1_22
*959 DFFSR_21
*960 _91_
*961 NAND3X1_19
*962 OAI21X1_23
*963 _92_
*964 NOR2X1_18
*965 OAI21X1_23
*966 _94_
*967 NAND3X1_20
*968 NAND2X1_18
*969 _95_
*970 NAND2X1_18
*971 OAI21X1_23
*972 _2_[14]
*973 OAI21X1_23
*974 DFFSR_22
*975 _96_
*976 NAND3X1_21
*977 OAI21X1_24
*978 _97_
*979 AOI21X1_3
*980 OAI21X1_24
*981 _98_
*982 NAND3X1_22
*983 NAND2X1_19
*984 _99_
*985 NAND2X1_19
*986 OAI21X1_24
*987 _2_[15]
*988 OAI21X1_24
*989 DFFSR_23
*990 _100_
*991 NAND3X1_23
*992 OAI21X1_25
*993 _101_
*994 AOI21X1_4
*995 OAI21X1_25
*996 _2_[16]
*997 OAI21X1_25
*998 DFFSR_24
*999 _102_
*1000 OAI21X1_26
*1001 NOR2X1_20
*1002 _2_[17]
*1003 NOR2X1_20
*1004 DFFSR_25
*1005 _103_
*1006 OAI21X1_27
*1007 NOR2X1_21
*1008 _2_[18]
*1009 NOR2X1_21
*1010 DFFSR_26
*1011 _104_
*1012 OAI21X1_28
*1013 NOR2X1_22
*1014 _2_[19]
*1015 NOR2X1_22
*1016 DFFSR_27
*1017 _105_
*1018 OAI21X1_29
*1019 NOR2X1_23
*1020 _2_[20]
*1021 NOR2X1_23
*1022 DFFSR_28
*1023 _106_
*1024 OAI21X1_30
*1025 NOR2X1_24
*1026 _2_[21]
*1027 NOR2X1_24
*1028 DFFSR_29
*1029 _107_
*1030 OAI21X1_31
*1031 NOR2X1_25
*1032 _2_[22]
*1033 NOR2X1_25
*1034 DFFSR_30
*1035 _108_
*1036 OAI21X1_32
*1037 NOR2X1_26
*1038 _2_[23]
*1039 NOR2X1_26
*1040 DFFSR_31
*1041 _109_
*1042 OAI21X1_33
*1043 NOR2X1_27
*1044 _2_[24]
*1045 NOR2X1_27
*1046 DFFSR_32
*1047 _110_
*1048 OAI21X1_34
*1049 NOR2X1_28
*1050 _2_[25]
*1051 NOR2X1_28
*1052 DFFSR_33
*1053 _111_
*1054 OAI21X1_35
*1055 NOR2X1_29
*1056 _2_[26]
*1057 NOR2X1_29
*1058 DFFSR_34
*1059 _112_
*1060 OAI21X1_36
*1061 NOR2X1_30
*1062 _2_[27]
*1063 NOR2X1_30
*1064 DFFSR_35
*1065 _113_
*1066 OAI21X1_37
*1067 NOR2X1_31
*1068 _2_[28]
*1069 NOR2X1_31
*1070 DFFSR_36
*1071 _114_
*1072 OAI21X1_38
*1073 NOR2X1_32
*1074 _2_[29]
*1075 NOR2X1_32
*1076 DFFSR_37
*1077 _115_
*1078 OAI21X1_39
*1079 NOR2X1_33
*1080 _2_[30]
*1081 NOR2X1_33
*1082 DFFSR_38
*1083 _116_
*1084 OAI21X1_40
*1085 NOR2X1_34
*1086 _2_[31]
*1087 NOR2X1_34
*1088 DFFSR_39
*1089 _118_
*1090 OAI21X1_41
*1091 OAI21X1_42
*1092 _119_
*1093 OAI21X1_42
*1094 OAI22X1_1
*1095 _4_[0]
*1096 OAI22X1_1
*1097 DFFSR_6
*1098 _122_
*1099 NOR2X1_35
*1100 NOR2X1_36
*1101 _123_
*1102 NOR2X1_36
*1103 OAI22X1_2
*1104 _124_
*1105 OAI22X1_2
*1106 NAND2X1_21
*1107 _125_
*1108 NAND2X1_21
*1109 OAI21X1_43
*1110 _4_[1]
*1111 OAI21X1_43
*1112 DFFSR_7
*1113 _1_
*1114 OAI21X1_44
*1115 DFFSR_5
*1116 _126_
*1117 INVX1_14
*1118 AOI22X1_1
*1119 _128_
*1120 NAND2X1_22
*1121 NOR2X1_37
*1122 _130_
*1123 NAND3X1_24
*1124 AOI22X1_1
*1125 _0_
*1126 AOI22X1_1
*1127 DFFSR_4
*1128 _131_
*1129 OAI21X1_45
*1130 NOR2X1_42
*1131 balance_check
*1132 INVX1_15
*1133 print_balance
*1134 INVX1_17
*1135 _138_
*1136 NAND2X1_24
*1137 OAI21X1_47
*1138 _141_
*1139 OAI21X1_46
*1140 OAI21X1_47
*1141 _142_
*1142 OAI21X1_47
*1143 NOR2X1_41
*1144 insert_card
*1145 NAND2X1_26
*1146 _143_
*1147 NAND2X1_26
*1148 OAI21X1_48
*1149 _145_
*1150 OAI21X1_48
*1151 NOR2X1_41
*1152 _146_
*1153 NOR2X1_41
*1154 OAI21X1_49
*1155 _147_
*1156 OAI21X1_49
*1157 NOR2X1_42
*1158 _148_
*1159 NOR2X1_42
*1160 AOI21X1_5
*1161 _3_[0]
*1162 AOI21X1_5
*1163 DFFSR_1
*1164 _149_
*1165 INVX1_18
*1166 AOI22X1_2
*1167 _151_
*1168 INVX1_19
*1169 OAI21X1_51
*1170 _152_
*1171 OAI21X1_51
*1172 AOI22X1_2
*1173 _153_
*1174 AOI22X1_2
*1175 AOI22X1_3
*1176 _155_
*1177 INVX1_21
*1178 NAND3X1_25
*1179 _157_
*1180 OAI21X1_52
*1181 AOI21X1_6
*1182 _158_
*1183 AOI21X1_6
*1184 AOI22X1_3
*1185 _3_[1]
*1186 AOI22X1_3
*1187 DFFSR_2
*1188 _160_
*1189 OAI21X1_54
*1190 NOR2X1_43
*1191 _161_
*1192 NOR2X1_43
*1193 OAI21X1_58
*1194 _162_
*1195 NAND2X1_28
*1196 OAI21X1_56
*1197 _163_
*1198 INVX1_22
*1199 OAI21X1_56
*1200 _164_
*1201 OAI21X1_55
*1202 OAI21X1_56
*1203 _165_
*1204 OAI21X1_56
*1205 OR2X2_3
*1206 _166_
*1207 OAI21X1_57
*1208 OR2X2_3
*1209 _167_
*1210 OR2X2_3
*1211 OAI21X1_58
*1212 _168_
*1213 OAI21X1_58
*1214 OAI21X1_59
*1215 _3_[2]
*1216 OAI21X1_59
*1217 DFFSR_3
*1218 reset
*1219 INVX8_3
*1220 auth_success
*1221 BUFX2_3
*1222 freeze
*1223 BUFX2_4
*1224 state[0]
*1225 BUFX2_5
*1226 state[1]
*1227 BUFX2_6
*1228 state[2]
*1229 BUFX2_7

*PORTS
*109 I
*377 I
*442 I
*697 I
*704 I
*711 I
*1131 I
*1133 I
*1144 I
*1218 I
*1220 O
*1222 O
*1224 O
*1226 O
*1228 O

*D_NET *1 0.0035172
*CONN
*I *2:Y O *D NAND2X1
*I *3:B I *L 0.0270702
*I *4:B I *L 0.0270702
*I *5:B I *L 0.0227534
*I *6:B I *L 0.0270702
*I *7:B I *L 0.0270702
*I *8:B I *L 0.0270702
*I *9:B I *L 0.0270702
*I *10:B I *L 0.0270702
*I *11:B I *L 0.0270702
*I *12:B I *L 0.0270702
*I *13:B I *L 0.0270702
*I *14:B I *L 0.0270702
*I *15:B I *L 0.0270702
*I *16:B I *L 0.0270702
*I *17:B I *L 0.0270702
*I *18:B I *L 0.0270702
*CAP
1 1_1 0.0003756
2 1_2 2.688e-05
3 1_3 1.344e-05
4 1_4 0
5 1_5 9.408e-05
6 1_6 5.76e-05
7 1_7 4.704e-05
8 1_8 0.000204
9 1_9 2.04e-05
10 1_10 8.4e-06
11 1_11 0.00026496
12 1_12 2.04e-05
13 1_13 2.688e-05
14 1_14 0.0001008
15 1_15 0.00046104
16 1_16 0.00022392
17 1_17 4.08e-05
18 1_18 9.456e-05
19 1_19 2.04e-05
20 1_20 0.00025536
21 1_21 0
22 1_22 0.0002448
23 1_23 2.04e-05
24 1_24 0.000204
25 1_25 2.04e-05
26 1_26 0.0002448
27 1_27 2.04e-05
28 1_28 0.00025128
29 1_29 6.72e-05
30 1_30 8.736e-05
*RES
1 *2:Y 1_1 4.43333
2 1_1 1_2 0.746667
3 1_2 1_3 0.373333
4 1_3 1_4 0
5 1_4 *3:B 0
6 1_3 1_5 2.61333
7 1_5 1_6 0.373333
8 1_6 *4:B 0
9 1_5 1_7 1.30667
10 1_7 *5:B 0
11 1_2 1_8 2.33333
12 1_8 1_9 0.233333
13 1_9 *6:B 0
14 1_9 1_10 0.233333
15 1_10 1_11 3.36
16 1_11 1_12 0.233333
17 1_12 *7:B 0
18 1_12 1_13 0.746667
19 1_13 1_14 2.8
20 1_14 *8:B 0
21 1_13 1_15 5.27333
22 1_15 1_16 3.22
23 1_16 1_17 0.466667
24 1_17 *9:B 0
25 1_16 1_18 1.96
26 1_18 *10:B 0
27 1_15 1_19 0.233333
28 1_19 *11:B 0
29 1_10 1_20 7.09333
30 1_20 1_21 0
31 1_21 *12:B 0
32 1_21 1_22 2.8
33 1_22 1_23 0.233333
34 1_23 *13:B 0
35 1_23 1_24 2.33333
36 1_24 1_25 0.233333
37 1_25 *14:B 0
38 1_25 1_26 2.8
39 1_26 1_27 0.233333
40 1_27 *15:B 0
41 1_27 1_28 3.31333
42 1_28 *16:B 0
43 1_25 1_29 1.86667
44 1_29 *17:B 0
45 1_1 1_30 2.42667
46 1_30 *18:B 0
*END
*D_NET *19 0.00507312
*CONN
*I *20:Y O *D NAND2X1
*I *21:A I *L 0.0274396
*I *22:C I *L 0.0180101
*I *23:D I *L 0.027353
*I *24:B I *L 0.0270702
*I *25:B I *L 0.0270702
*I *26:B I *L 0.0270702
*I *27:B I *L 0.0270702
*I *28:B I *L 0.0270702
*I *29:A I *L 0.0265312
*I *30:B I *L 0.0270702
*I *31:B I *L 0.0270702
*I *32:B I *L 0.0270702
*I *33:B I *L 0.0270702
*I *34:B I *L 0.0221869
*I *35:B I *L 0.0270702
*I *36:A I *L 0.0265312
*CAP
1 19_1 0.0001104
2 19_2 0.00010464
3 19_3 0.000162
4 19_4 2.04e-05
5 19_5 0.00033216
6 19_6 6.048e-05
7 19_7 0.0002856
8 19_8 0.0002244
9 19_9 2.04e-05
10 19_10 0.00027792
11 19_11 0.0001272
12 19_12 0.000282
13 19_13 0.00025584
14 19_14 0.00021504
15 19_15 6.096e-05
16 19_16 2.04e-05
17 19_17 0.00023088
18 19_18 0.0002244
19 19_19 2.04e-05
20 19_20 0.00011136
21 19_21 0.00048144
22 19_22 5.76e-05
23 19_23 6.72e-05
24 19_24 0.00049488
25 19_25 3.264e-05
26 19_26 0.00060264
27 19_27 8.16e-05
28 19_28 0.00010824
*RES
1 *20:Y 19_1 1.4
2 19_1 19_2 1.68
3 19_2 *21:A 0
4 19_1 19_3 3.5
5 19_3 19_4 0.233333
6 19_4 *22:C 0
7 19_4 19_5 5.22667
8 19_5 *23:D 0
9 19_1 19_6 1.68
10 19_6 19_7 3.26667
11 19_7 19_8 2.56667
12 19_8 19_9 0.233333
13 19_9 *24:B 0
14 19_9 19_10 4.38667
15 19_10 *25:B 0
16 19_10 19_11 1.02667
17 19_11 19_12 2.94
18 19_12 *26:B 0
19 19_11 19_13 6.44
20 19_13 *27:B 0
21 19_7 19_14 5.97333
22 19_14 19_15 1.02667
23 19_15 19_16 0.233333
24 19_16 *28:B 0
25 19_16 19_17 3.08
26 19_17 *29:A 0
27 19_14 19_18 2.56667
28 19_18 19_19 0.233333
29 19_19 *30:B 0
30 19_19 19_20 1.86667
31 19_20 *31:B 0
32 19_19 19_21 5.50667
33 19_21 19_22 0.373333
34 19_22 *32:B 0
35 19_21 19_23 1.86667
36 19_23 *33:B 0
37 19_6 19_24 7.74667
38 19_24 19_25 0.373333
39 19_25 *34:B 0
40 19_24 19_26 10.4067
41 19_26 19_27 0.933333
42 19_27 *35:B 0
43 19_26 19_28 2.00667
44 19_28 *36:A 0
*END
*D_NET *37 0.00170736
*CONN
*I *38:Y O *D CLKBUF1
*I *39:CLK I *L 0.0134469
*I *40:CLK I *L 0.0134469
*I *41:CLK I *L 0.0134469
*I *42:CLK I *L 0.0134469
*I *43:CLK I *L 0.0134469
*I *44:CLK I *L 0.0134469
*I *45:CLK I *L 0.0134469
*CAP
1 37_1 0.00024456
2 37_2 0.0001224
3 37_3 2.04e-05
4 37_4 0.0003804
5 37_5 2.04e-05
6 37_6 0.00012192
7 37_7 6.12e-05
8 37_8 0.00011424
9 37_9 8.16e-05
10 37_10 0.00011424
11 37_11 6.12e-05
12 37_12 0.00031104
13 37_13 5.376e-05
*RES
1 *38:Y 37_1 3.12667
2 37_1 37_2 1.4
3 37_2 37_3 0.233333
4 37_3 *39:CLK 0
5 37_3 37_4 4.9
6 37_4 37_5 0.233333
7 37_5 *40:CLK 0
8 37_5 37_6 2.05333
9 37_6 37_7 0.7
10 37_7 *41:CLK 0
11 37_6 37_8 3.17333
12 37_8 37_9 0.933333
13 37_9 *42:CLK 0
14 37_8 37_10 3.17333
15 37_10 37_11 0.7
16 37_11 *43:CLK 0
17 37_10 37_12 3.84
18 37_12 *44:CLK 0
19 37_1 37_13 1.49333
20 37_13 *45:CLK 0
*END
*D_NET *46 0.0021168
*CONN
*I *47:Y O *D CLKBUF1
*I *48:CLK I *L 0.0134469
*I *49:CLK I *L 0.0134469
*I *50:CLK I *L 0.0134469
*I *51:CLK I *L 0.0134469
*I *52:CLK I *L 0.0134469
*I *53:CLK I *L 0.0134469
*I *54:CLK I *L 0.0134469
*CAP
1 46_1 0.00036744
2 46_2 8.736e-05
3 46_3 0
4 46_4 0.0003804
5 46_5 2.04e-05
6 46_6 0.00025032
7 46_7 0.00014784
8 46_8 0
9 46_9 0.0003264
10 46_10 2.04e-05
11 46_11 0.0001224
12 46_12 2.04e-05
13 46_13 0.00037344
*RES
1 *47:Y 46_1 4.34
2 46_1 46_2 2.42667
3 46_2 46_3 0
4 46_3 *48:CLK 0
5 46_3 46_4 4.9
6 46_4 46_5 0.233333
7 46_5 *49:CLK 0
8 46_5 46_6 4.62
9 46_6 *50:CLK 0
10 46_1 46_7 4.10667
11 46_7 46_8 0
12 46_8 *51:CLK 0
13 46_8 46_9 3.73333
14 46_9 46_10 0.233333
15 46_10 *52:CLK 0
16 46_10 46_11 1.4
17 46_11 46_12 0.233333
18 46_12 *53:CLK 0
19 46_12 46_13 5.04
20 46_13 *54:CLK 0
*END
*D_NET *55 0.00204504
*CONN
*I *56:Y O *D CLKBUF1
*I *57:CLK I *L 0.0134469
*I *58:CLK I *L 0.0134469
*I *59:CLK I *L 0.0134469
*I *60:CLK I *L 0.0134469
*I *61:CLK I *L 0.0134469
*I *62:CLK I *L 0.0134469
*I *63:CLK I *L 0.0134469
*CAP
1 55_1 0.00045384
2 55_2 0
3 55_3 0.00048912
4 55_4 2.04e-05
5 55_5 0.00018144
6 55_6 0.00020832
7 55_7 0
8 55_8 0.00016968
9 55_9 0.00037944
10 55_10 2.04e-05
11 55_11 0.0001224
*RES
1 *56:Y 55_1 7.60667
2 55_1 55_2 0
3 55_2 *57:CLK 0
4 55_2 55_3 6.25333
5 55_3 55_4 0.233333
6 55_4 *58:CLK 0
7 55_4 55_5 5.04
8 55_5 *59:CLK 0
9 55_1 55_6 5.78667
10 55_6 55_7 0
11 55_7 *60:CLK 0
12 55_7 55_8 2.38
13 55_8 *61:CLK 0
14 55_7 55_9 4.34
15 55_9 55_10 0.233333
16 55_10 *62:CLK 0
17 55_10 55_11 1.4
18 55_11 *63:CLK 0
*END
*D_NET *64 0.00181176
*CONN
*I *65:Y O *D BUFX4
*I *66:R I *L 0.0357813
*I *67:R I *L 0.0357813
*I *68:R I *L 0.0357813
*I *69:R I *L 0.0357813
*I *70:R I *L 0.0357813
*I *71:R I *L 0.0357813
*I *72:R I *L 0.0357813
*CAP
1 64_1 0.00033144
2 64_2 0.00023664
3 64_3 2.04e-05
4 64_4 0.0004284
5 64_5 2.04e-05
6 64_6 0.0002448
7 64_7 6.048e-05
8 64_8 0
9 64_9 0.000204
10 64_10 2.04e-05
11 64_11 0.0002448
*RES
1 *65:Y 64_1 6.20667
2 64_1 *66:R 0
3 64_1 64_2 2.70667
4 64_2 64_3 0.233333
5 64_3 *67:R 0
6 64_3 64_4 4.9
7 64_4 *68:R 0
8 64_3 64_5 0.233333
9 64_5 64_6 2.8
10 64_6 *69:R 0
11 64_5 64_7 1.68
12 64_7 64_8 0
13 64_8 *70:R 0
14 64_8 64_9 2.33333
15 64_9 64_10 0.233333
16 64_10 *71:R 0
17 64_10 64_11 2.8
18 64_11 *72:R 0
*END
*D_NET *73 0.0013632
*CONN
*I *74:Y O *D BUFX4
*I *75:R I *L 0.0357813
*I *76:R I *L 0.0357813
*I *77:R I *L 0.0357813
*I *78:R I *L 0.0357813
*I *79:R I *L 0.0357813
*I *80:R I *L 0.0357813
*I *81:R I *L 0.0357813
*CAP
1 73_1 4.92e-05
2 73_2 6.72e-05
3 73_3 0
4 73_4 0.000204
5 73_5 0.0002448
6 73_6 2.04e-05
7 73_7 2.016e-05
8 73_8 2.688e-05
9 73_9 0
10 73_10 0.00031824
11 73_11 0.000204
12 73_12 3.36e-05
13 73_13 0.00017472
*RES
1 *74:Y 73_1 0.7
2 73_1 73_2 1.86667
3 73_2 73_3 0
4 73_3 *75:R 0
5 73_3 73_4 2.33333
6 73_4 73_5 2.8
7 73_5 73_6 0.233333
8 73_6 *76:R 0
9 73_6 73_7 0.56
10 73_7 73_8 0.746667
11 73_8 73_9 0
12 73_9 *77:R 0
13 73_8 73_10 5.50667
14 73_10 *78:R 0
15 73_7 73_11 2.33333
16 73_11 *79:R 0
17 73_4 73_12 0.933333
18 73_12 *80:R 0
19 73_1 73_13 4.85333
20 73_13 *81:R 0
*END
*D_NET *82 0.0020424
*CONN
*I *83:Y O *D BUFX4
*I *84:R I *L 0.0357813
*I *85:R I *L 0.0357813
*I *86:R I *L 0.0357813
*I *87:R I *L 0.0357813
*I *88:R I *L 0.0357813
*I *89:R I *L 0.0357813
*I *90:R I *L 0.0357813
*CAP
1 82_1 0.00060384
2 82_2 0.00011424
3 82_3 0.0004284
4 82_4 0.00017544
5 82_5 4.08e-05
6 82_6 0.0002448
7 82_7 2.04e-05
8 82_8 0.000204
9 82_9 0.00021048
*RES
1 *83:Y 82_1 6.90667
2 82_1 *84:R 0
3 82_1 82_2 3.17333
4 82_2 *85:R 0
5 82_2 82_3 4.9
6 82_3 *86:R 0
7 82_3 82_4 3.87333
8 82_4 82_5 0.466667
9 82_5 *87:R 0
10 82_5 82_6 2.8
11 82_6 82_7 0.233333
12 82_7 *88:R 0
13 82_7 82_8 2.33333
14 82_8 *89:R 0
15 82_4 82_9 2.84667
16 82_9 *90:R 0
*END
*D_NET *91 0.00177192
*CONN
*I *92:Y O *D INVX2
*I *93:B I *L 0.0227534
*I *94:A I *L 0.0265613
*I *95:A I *L 0.0177118
*I *96:B I *L 0.0180112
*I *97:A I *L 0.0265312
*I *98:B I *L 0.0180112
*I *99:B I *L 0.0227534
*CAP
1 91_1 0.00012216
2 91_2 0.00011448
3 91_3 6.12e-05
4 91_4 0.00014208
5 91_5 0.000102
6 91_6 5.376e-05
7 91_7 0.000102
8 91_8 0.00037344
9 91_9 2.04e-05
10 91_10 0.000162
11 91_11 2.04e-05
12 91_12 0.00025704
13 91_13 0.00024096
*RES
1 *92:Y 91_1 1.72667
2 91_1 91_2 2.84667
3 91_2 91_3 0.7
4 91_3 *93:B 0
5 91_2 91_4 2.61333
6 91_4 91_5 1.16667
7 91_5 *94:A 0
8 91_4 91_6 1.49333
9 91_6 91_7 1.16667
10 91_7 *95:A 0
11 91_6 91_8 5.04
12 91_8 91_9 0.233333
13 91_9 *96:B 0
14 91_9 91_10 3.5
15 91_10 91_11 0.233333
16 91_11 *97:A 0
17 91_11 91_12 2.94
18 91_12 *98:B 0
19 91_1 91_13 2.09333
20 91_13 *99:B 0
*END
*D_NET *100 0.00176712
*CONN
*I *101:Q O *D DFFSR
*I *102:A I *L 0.0222511
*I *103:A I *L 0.0222369
*I *104:A I *L 0.0134094
*I *105:B I *L 0.022204
*I *106:B I *L 0.0268633
*I *107:B I *L 0.022204
*I *108:B I *L 0.0270702
*CAP
1 100_1 0.0006696
2 100_2 6.096e-05
3 100_3 2.016e-05
4 100_4 0.000102
5 100_5 2.016e-05
6 100_6 0.0001596
7 100_7 0.00012768
8 100_8 9.48e-05
9 100_9 0.0002124
10 100_10 6.768e-05
11 100_11 0
12 100_12 6.768e-05
13 100_13 0.0001644
*RES
1 *101:Q 100_1 7.37333
2 100_1 100_2 1.02667
3 100_2 *102:A 0
4 100_1 100_3 0.56
5 100_3 100_4 1.16667
6 100_4 *103:A 0
7 100_3 100_5 0.56
8 100_5 100_6 1.54
9 100_6 *104:A 0
10 100_5 100_7 3.54667
11 100_7 100_8 1.63333
12 100_8 *105:B 0
13 100_7 100_9 2.56667
14 100_9 100_10 1.21333
15 100_10 100_11 0
16 100_11 *106:B 0
17 100_10 100_12 1.21333
18 100_12 *107:B 0
19 100_9 100_13 1.16667
20 100_13 *108:B 0
*END
*D_NET *109 0.00140544
*CONN
*P *109 O
*I *110:A I *L 0.0549205
*I *111:A I *L 0.0549205
*I *112:A I *L 0.0549205
*I *113:A I *L 0.0549205
*I *114:A I *L 0.0549205
*I *115:A I *L 0.0549205
*CAP
1 109_1 0.0001836
2 109_2 0
3 109_3 7.68e-05
4 109_4 0.0003936
5 109_5 3.36e-05
6 109_6 2.016e-05
7 109_7 0.00018816
8 109_8 0
9 109_9 0.00029904
10 109_10 6.768e-05
11 109_11 0.0001428
*RES
1 *109 109_1 2.1
2 109_1 109_2 0
3 109_2 *110:A 0
4 109_2 109_3 0.533333
5 109_3 109_4 2.73333
6 109_4 109_5 0.933333
7 109_5 *111:A 0
8 109_4 109_6 0.56
9 109_6 *112:A 0
10 109_3 109_7 5.22667
11 109_7 109_8 0
12 109_8 *113:A 0
13 109_7 109_9 8.30667
14 109_9 109_10 1.21333
15 109_10 *114:A 0
16 109_9 109_11 1.63333
17 109_11 *115:A 0
*END
*D_NET *116 0.00220152
*CONN
*I *117:Y O *D CLKBUF1
*I *118:CLK I *L 0.0134469
*I *119:CLK I *L 0.0134469
*I *120:CLK I *L 0.0134469
*I *121:CLK I *L 0.0134469
*I *122:CLK I *L 0.0134469
*I *123:CLK I *L 0.0134469
*CAP
1 116_1 0.000192
2 116_2 0.00012816
3 116_3 2.04e-05
4 116_4 0.0001224
5 116_5 2.04e-05
6 116_6 0.00064008
7 116_7 0.0001224
8 116_8 0.00027744
9 116_9 2.04e-05
10 116_10 0.00017544
11 116_11 0.0004824
*RES
1 *117:Y 116_1 2.33333
2 116_1 116_2 2.89333
3 116_2 116_3 0.233333
4 116_3 *118:CLK 0
5 116_3 116_4 1.4
6 116_4 116_5 0.233333
7 116_5 *119:CLK 0
8 116_5 116_6 15.4467
9 116_6 116_7 1.4
10 116_7 *120:CLK 0
11 116_6 116_8 3.17333
12 116_8 116_9 0.233333
13 116_9 *121:CLK 0
14 116_9 116_10 2.00667
15 116_10 *122:CLK 0
16 116_1 116_11 6.06667
17 116_11 *123:CLK 0
*END
*D_NET *124 0.00151344
*CONN
*I *125:Y O *D CLKBUF1
*I *126:CLK I *L 0.0134469
*I *127:CLK I *L 0.0134469
*I *128:CLK I *L 0.0134469
*I *129:CLK I *L 0.0134469
*I *130:CLK I *L 0.0134469
*I *131:CLK I *L 0.0134469
*CAP
1 124_1 9e-05
2 124_2 0.00010752
3 124_3 4.08e-05